Circuit: * Z:\MyDoku\Uni\s\Electronics\Versuch01\Waleed\led_simulation.asc

Warning: Multiple definitions of model "dg" Type: Diode
Warning: Multiple definitions of model "dy" Type: Diode
Warning: Multiple definitions of model "dr" Type: Diode

Date: Fri Nov 17 11:37:58 2023
Total elapsed time: 0.069 seconds.

tnom = 27
temp = 27
method = trap
totiter = 1007
traniter = 0
tranpoints = 0
accept = 0
rejected = 0
matrix size = 14
fillins = 0
solver = Normal
Avg thread counts: 5.0/0.0/8.1/5.0
Matrix Compiler1: 276 bytes object code size  0.2/0.1/[0.1]
Matrix Compiler2: 846 bytes object code size  0.1/0.2/[0.1]

