Circuit: * C:\Users\demo\Documents\Studium\ESE\WS23\Elektronik\Lab\Versuch02\Circuits\2_2_1_c.asc

.step vinput=0
.OP point found by inspection.
.step vinput=1
.step vinput=2
.step vinput=3
.step vinput=4
.step vinput=5

Date: Tue Nov 21 16:25:07 2023
Total elapsed time: 0.542 seconds.

tnom = 27
temp = 27
method = trap
totiter = 2010
traniter = 0
tranpoints = 0
accept = 0
rejected = 0
matrix size = 9
fillins = 0
solver = Normal
Matrix Compiler1: 456 bytes object code size  0.1/0.1/[0.1]
Matrix Compiler2: 667 bytes object code size  0.1/0.1/[0.1]

