Circuit: * C:\Users\demo\Documents\Studium\ESE\WS23\Elektronik\Lab\Versuch02\Circuits\2_3_1_def.asc

WARNING: Node VO is floating.

WARNING: Less than two connections to node VO.  This node is used by CHP.
Direct Newton iteration for .op point succeeded.
.step r_e=220
.step r_e=680

Date: Tue Nov 21 16:52:28 2023
Total elapsed time: 0.096 seconds.

tnom = 27
temp = 27
method = trap
totiter = 5
traniter = 0
tranpoints = 0
accept = 0
rejected = 0
matrix size = 12
fillins = 0
solver = Normal
Matrix Compiler1:      36 opcodes
Matrix Compiler2: 920 bytes object code size
