Circuit: * C:\Users\demo\Documents\Studium\ESE\WS23\Elektronik\Lab\Versuch02\Circuits\2_3_1_def.asc

WARNING: Node VO is floating.

WARNING: Less than two connections to node VO.  This node is used by CHP.
Direct Newton iteration for .op point succeeded.
.step r_e=220
.step r_e=680

Date: Thu Dec 07 20:49:13 2023
Total elapsed time: 0.138 seconds.

tnom = 27
temp = 27
method = modified trap
totiter = 494
traniter = 489
tranpoints = 210
accept = 134
rejected = 76
matrix size = 12
fillins = 0
solver = Normal
Matrix Compiler1:      36 opcodes  0.2/[0.1]/0.5
Matrix Compiler2: 920 bytes object code size  0.1/0.2/[0.1]

