Circuit: * C:\Users\demo\Documents\Studium\ESE\WS23\Elektronik\Lab\Versuch04\Circuits\4_2_1_b.asc

WARNING: Less than two connections to node VO.  This node is used by RO.
Direct Newton iteration for .op point succeeded.

Date: Thu Jan 11 12:58:11 2024
Total elapsed time: 0.069 seconds.

tnom = 27
temp = 27
method = trap
totiter = 18
traniter = 0
tranpoints = 0
accept = 0
rejected = 0
matrix size = 30
fillins = 32
solver = Normal
Matrix Compiler1:     157 opcodes
Matrix Compiler2: 3.01 KB object code size
