Circuit: * C:\Users\demo\Documents\Studium\ESE\WS23\Elektronik\Lab\Versuch04\Circuits\4_2_1_c.asc

WARNING: Less than two connections to node VO.  This node is used by RO.
Direct Newton iteration for .op point succeeded.

Date: Tue Jan 09 10:49:42 2024
Total elapsed time: 0.041 seconds.

tnom = 27
temp = 27
method = trap
totiter = 17
traniter = 0
tranpoints = 0
accept = 0
rejected = 0
matrix size = 29
fillins = 30
solver = Normal
Matrix Compiler1:     144 opcodes
Matrix Compiler2: 2.84 KB object code size
