Circuit: * C:\Users\demo\Documents\Studium\ESE\WS23\Elektronik\Lab\Versuch04\Circuits\4_3_1_d.asc

Direct Newton iteration for .op point succeeded.

Date: Tue Jan 09 10:59:16 2024
Total elapsed time: 0.126 seconds.

tnom = 27
temp = 27
method = trap
totiter = 4129
traniter = 0
tranpoints = 0
accept = 0
rejected = 0
matrix size = 29
fillins = 32
solver = Normal
Matrix Compiler1: 2.77 KB object code size  0.5/0.3/[0.2]
Matrix Compiler2: 2.94 KB object code size  0.3/0.3/[0.2]

